* Example of transient analysis
V1 0 1 8
R1 1 2 5
C1 2 0 5u
*C2 2 0 4u
.tran 1u 1.2m
.plot v(C1) i(C1) v(R1) i(R1)