* Example of transient analysis
* v(R1) v(L1) v(C1)
V1 0 1 dirac(10u)
R1 1 2 10
L1 2 3 1m
C1 3 0 1u
.tran 10u 10m
.plot v(R1) 
