* Example of transient analysis
V1 0 1 dirac(1u)
R1 1 2 10
L1 2 3 1m
C1 3 0 1u
.tran 1u 10m
.plot i(R1) 
